tests/golden/adiakoptics/midi_torn_tree.txt
=== BusCoords.dss ===

=== BusVoltageBases.dss ===
Set VoltageBases=(12.47, )
! CalcVoltageBases
=== EnergyMeter.dss ===
New "EnergyMeter.zone_2" Element=Line.main20 Terminal=1 Option=[E, R, C]
=== GrowthShape.dss ===
New "GrowthShape.default" NPts=2 Year=[ 1 20] Mult=[ 1.025 1.025]
=== Line.dss ===
New "Line.main1" Bus1=sourcebus Bus2=m1 LineCode=lc Length=0.1 Units=km
New "Line.main2" Bus1=m1 Bus2=m2 LineCode=lc Length=0.1 Units=km
New "Line.main3" Bus1=m2 Bus2=m3 LineCode=lc Length=0.1 Units=km
New "Line.main4" Bus1=m3 Bus2=m4 LineCode=lc Length=0.1 Units=km
New "Line.main5" Bus1=m4 Bus2=m5 LineCode=lc Length=0.1 Units=km
New "Line.main6" Bus1=m5 Bus2=m6 LineCode=lc Length=0.1 Units=km
New "Line.main7" Bus1=m6 Bus2=m7 LineCode=lc Length=0.1 Units=km
New "Line.main8" Bus1=m7 Bus2=m8 LineCode=lc Length=0.1 Units=km
New "Line.main9" Bus1=m8 Bus2=m9 LineCode=lc Length=0.1 Units=km
New "Line.main10" Bus1=m9 Bus2=m10 LineCode=lc Length=0.1 Units=km
New "Line.main11" Bus1=m10 Bus2=m11 LineCode=lc Length=0.1 Units=km
New "Line.main12" Bus1=m11 Bus2=m12 LineCode=lc Length=0.1 Units=km
New "Line.main13" Bus1=m12 Bus2=m13 LineCode=lc Length=0.1 Units=km
New "Line.main14" Bus1=m13 Bus2=m14 LineCode=lc Length=0.1 Units=km
New "Line.main15" Bus1=m14 Bus2=m15 LineCode=lc Length=0.1 Units=km
New "Line.main16" Bus1=m15 Bus2=m16 LineCode=lc Length=0.1 Units=km
New "Line.main17" Bus1=m16 Bus2=m17 LineCode=lc Length=0.1 Units=km
New "Line.main18" Bus1=m17 Bus2=m18 LineCode=lc Length=0.1 Units=km
New "Line.main19" Bus1=m18 Bus2=m19 LineCode=lc Length=0.1 Units=km
New "Line.lat1" Bus1=m8 Bus2=x1 LineCode=lc Length=0.08 Units=km
New "Line.lat2" Bus1=m15 Bus2=x2 LineCode=lc Length=0.08 Units=km
=== LineCode.dss ===
New "LineCode.lc" NPhases=3 R1=0.15 X1=0.35 R0=0.45 X0=1.05 C1=0 C0=0 Units=km
=== Load.dss ===
New "Load.lm1" Bus1=m1 Phases=3 kV=12.47 kW=120 PF=0.95 Model=1
New "Load.lm2" Bus1=m2 Phases=3 kV=12.47 kW=120 PF=0.95 Model=1
New "Load.lm3" Bus1=m3 Phases=3 kV=12.47 kW=120 PF=0.95 Model=1
New "Load.lm4" Bus1=m4 Phases=3 kV=12.47 kW=120 PF=0.95 Model=1
New "Load.lm5" Bus1=m5 Phases=3 kV=12.47 kW=120 PF=0.95 Model=1
New "Load.lm6" Bus1=m6 Phases=3 kV=12.47 kW=120 PF=0.95 Model=1
New "Load.lm7" Bus1=m7 Phases=3 kV=12.47 kW=120 PF=0.95 Model=1
New "Load.lm8" Bus1=m8 Phases=3 kV=12.47 kW=120 PF=0.95 Model=1
New "Load.lm9" Bus1=m9 Phases=3 kV=12.47 kW=120 PF=0.95 Model=1
New "Load.lm10" Bus1=m10 Phases=3 kV=12.47 kW=120 PF=0.95 Model=1
New "Load.lm11" Bus1=m11 Phases=3 kV=12.47 kW=120 PF=0.95 Model=1
New "Load.lm12" Bus1=m12 Phases=3 kV=12.47 kW=120 PF=0.95 Model=1
New "Load.lm13" Bus1=m13 Phases=3 kV=12.47 kW=120 PF=0.95 Model=1
New "Load.lm14" Bus1=m14 Phases=3 kV=12.47 kW=120 PF=0.95 Model=1
New "Load.lm15" Bus1=m15 Phases=3 kV=12.47 kW=120 PF=0.95 Model=1
New "Load.lm16" Bus1=m16 Phases=3 kV=12.47 kW=120 PF=0.95 Model=1
New "Load.lm17" Bus1=m17 Phases=3 kV=12.47 kW=120 PF=0.95 Model=1
New "Load.lm18" Bus1=m18 Phases=3 kV=12.47 kW=120 PF=0.95 Model=1
New "Load.lm19" Bus1=m19 Phases=3 kV=12.47 kW=120 PF=0.95 Model=1
New "Load.lx1" Bus1=x1 Phases=3 kV=12.47 kW=90 PF=0.95 Model=1
New "Load.lx2" Bus1=x2 Phases=3 kV=12.47 kW=90 PF=0.95 Model=1
=== LoadShape.dss ===
New "LoadShape.default" NPts=24 Interval=1 Mult=[ 0.677 0.6256 0.6087 0.5833 0.58028 0.6025 0.657 0.7477 0.832 0.88 0.94 0.989 0.985 0.98 0.9898 0.999 1 0.958 0.936 0.913 0.876 0.876 0.828 0.756]
=== Master.dss ===
! Saved by dss-rs (Pascal DSS C-API 1:1 port)
Clear
Set DefaultBaseFreq=60
New Circuit.admidi

Set EarthModel=Deri

Redirect LineCode.dss
Redirect LoadShape.dss
Redirect GrowthShape.dss
Redirect TCC_Curve.dss
Redirect Spectrum.dss
Redirect Vsource.dss
Redirect Line.dss
Redirect Load.dss
MakeBusList
Redirect BusVoltageBases.dss  ! set voltage bases
BusCoords BusCoords.dss
=== Master_Interconnected.dss ===
! Saved by dss-rs (Pascal DSS C-API 1:1 port)
Clear
Set DefaultBaseFreq=60
New Circuit.admidi

Set EarthModel=Deri

Redirect LineCode.dss
Redirect LoadShape.dss
Redirect GrowthShape.dss
Redirect TCC_Curve.dss
Redirect Spectrum.dss
Redirect Vsource.dss
Redirect Line.dss
Redirect Load.dss
Redirect zone_2\Branches.dss
Redirect zone_2\Loads.dss
Redirect EnergyMeter.dss
MakeBusList
Redirect BusVoltageBases.dss  ! set voltage bases
BusCoords BusCoords.dss
=== Spectrum.dss ===
New "Spectrum.default" NumHarm=7 Harmonic=[ 1 3 5 7 9 11 13] %Mag=[ 100 33 20 14 11 9 7] Angle=[ 0 0 0 0 0 0 0]
New "Spectrum.defaultload" NumHarm=7 Harmonic=[ 1 3 5 7 9 11 13] %Mag=[ 100 1.5 20 14 1 9 7] Angle=[ 0 180 180 180 180 180 180]
New "Spectrum.defaultgen" NumHarm=7 Harmonic=[ 1 3 5 7 9 11 13] %Mag=[ 100 5 3 1.5 1 0.7 0.5] Angle=[ 0 0 0 0 0 0 0]
New "Spectrum.defaultvsource" NumHarm=1 Harmonic=[ 1] %Mag=[ 100] Angle=[ 0]
New "Spectrum.linear" NumHarm=1 Harmonic=[ 1] %Mag=[ 100] Angle=[ 0]
New "Spectrum.pwm6" NumHarm=13 Harmonic=[ 1 3 5 7 9 11 13 15 17 19 21 23 25] %Mag=[ 100 4.4 76.5 62.7 2.9 24.8 12.7 0.5 7.1 8.4 0.9 4.4 3.3] Angle=[ -103 -5 28 -180 -33 -59 79 36 -253 -124 3 -30 86]
New "Spectrum.dc6" NumHarm=10 Harmonic=[ 1 3 5 7 9 11 13 15 17 19] %Mag=[ 100 1.2 33.6 1.6 0.4 8.7 1.2 0.3 4.5 1.3] Angle=[ -75 28 156 29 -91 49 54 148 -57 -46]
=== TCC_Curve.dss ===
New "TCC_Curve.a" NPts=5 C_Array=[ 1 2.5 4.5 8 14] T_Array=[ 0.15 0.07 0.05 0.045 0.045]
New "TCC_Curve.d" NPts=5 C_Array=[ 1 2.5 4.5 8 14] T_Array=[ 6 0.7 0.2 0.06 0.02]
New "TCC_Curve.tlink" NPts=7 C_Array=[ 2 2.1 3 4 6 22 50] T_Array=[ 300 100 10.1 4 1.4 0.1 0.02]
New "TCC_Curve.klink" NPts=6 C_Array=[ 2 2.2 3 4 6 30] T_Array=[ 300 20 4 1.3 0.41 0.02]
New "TCC_Curve.uv1547" NPts=2 C_Array=[ 0.5 0.9] T_Array=[ 0.166 2]
New "TCC_Curve.ov1547" NPts=2 C_Array=[ 1.1 1.2] T_Array=[ 2 0.166]
New "TCC_Curve.mod_inv" NPts=15 C_Array=[ 1.1 1.3 1.5 2 3 4 5 6 7 8 9 10 20 50 100] T_Array=[ 27.1053 9.9029 6.439 3.8032 2.4322 1.9458 1.6883 1.5255 1.4117 1.3267 1.2604 1.2068 0.9481 0.7468 0.6478]
New "TCC_Curve.very_inv" NPts=15 C_Array=[ 1.1 1.3 1.5 2 3 4 5 6 7 8 9 10 20 50 100] T_Array=[ 93.872 28.9113 16.179 7.0277 2.9423 1.7983 1.3081 1.0513 0.8995 0.8023 0.7361 0.6891 0.5401 0.4988 0.493]
New "TCC_Curve.ext_inv" NPts=15 C_Array=[ 1.1 1.3 1.5 2 3 4 5 6 7 8 9 10 20 50 100] T_Array=[ 134.4074 40.9913 22.6817 9.5217 3.6467 2.0017 1.2967 0.9274 0.7092 0.5693 0.4742 0.4065 0.1924 0.133 0.1245]
New "TCC_Curve.definite" NPts=3 C_Array=[ 1 1.001 100] T_Array=[ 300 1 1]
=== Vsource.dss ===
Edit Vsource.source bus1=sourcebus.1 phases=1 pu=1.0 basekv=7.1897975 angle=-0.119893 R1=0 X1=0.001 R0=0 X0=0.001
New Vsource.Vph_2 bus1=sourcebus.2 phases=1 pu=1.0 basekv=7.1897975 angle=-120.11989 R1=0 X1=0.001 R0=0 X0=0.001
New Vsource.Vph_3 bus1=sourcebus.3 phases=1 pu=1.0 basekv=7.1897975 angle=119.88011 R1=0 X1=0.001 R0=0 X0=0.001
=== zone_2/Branches.dss ===
New "Line.main20" Bus1=m19 Bus2=m20 LineCode=lc Length=0.1 Units=km
New "Line.main21" Bus1=m20 Bus2=m21 LineCode=lc Length=0.1 Units=km
New "Line.main22" Bus1=m21 Bus2=m22 LineCode=lc Length=0.1 Units=km
New "Line.lat3" Bus1=m22 Bus2=x3 LineCode=lc Length=0.08 Units=km
New "Line.main23" Bus1=m22 Bus2=m23 LineCode=lc Length=0.1 Units=km
New "Line.main24" Bus1=m23 Bus2=m24 LineCode=lc Length=0.1 Units=km
New "Line.main25" Bus1=m24 Bus2=m25 LineCode=lc Length=0.1 Units=km
New "Line.main26" Bus1=m25 Bus2=m26 LineCode=lc Length=0.1 Units=km
New "Line.main27" Bus1=m26 Bus2=m27 LineCode=lc Length=0.1 Units=km
New "Line.main28" Bus1=m27 Bus2=m28 LineCode=lc Length=0.1 Units=km
New "Line.main29" Bus1=m28 Bus2=m29 LineCode=lc Length=0.1 Units=km
New "Line.lat4" Bus1=m29 Bus2=x4 LineCode=lc Length=0.08 Units=km
New "Line.main30" Bus1=m29 Bus2=m30 LineCode=lc Length=0.1 Units=km
New "Line.main31" Bus1=m30 Bus2=m31 LineCode=lc Length=0.1 Units=km
New "Line.main32" Bus1=m31 Bus2=m32 LineCode=lc Length=0.1 Units=km
New "Line.main33" Bus1=m32 Bus2=m33 LineCode=lc Length=0.1 Units=km
New "Line.main34" Bus1=m33 Bus2=m34 LineCode=lc Length=0.1 Units=km
New "Line.main35" Bus1=m34 Bus2=m35 LineCode=lc Length=0.1 Units=km
New "Line.main36" Bus1=m35 Bus2=m36 LineCode=lc Length=0.1 Units=km
=== zone_2/GrowthShape.dss ===
New "GrowthShape.default" NPts=2 Year=[ 1 20] Mult=[ 1.025 1.025]
=== zone_2/LineCode.dss ===
New "LineCode.lc" NPhases=3 R1=0.15 X1=0.35 R0=0.45 X0=1.05 C1=0 C0=0 Units=km
=== zone_2/LoadShape.dss ===
New "LoadShape.default" NPts=24 Interval=1 Mult=[ 0.677 0.6256 0.6087 0.5833 0.58028 0.6025 0.657 0.7477 0.832 0.88 0.94 0.989 0.985 0.98 0.9898 0.999 1 0.958 0.936 0.913 0.876 0.876 0.828 0.756]
=== zone_2/Loads.dss ===
New "Load.lm20" Bus1=m20 Phases=3 kV=12.47 kW=120 PF=0.95 Model=1
New "Load.lm21" Bus1=m21 Phases=3 kV=12.47 kW=120 PF=0.95 Model=1
New "Load.lm22" Bus1=m22 Phases=3 kV=12.47 kW=120 PF=0.95 Model=1
New "Load.lx3" Bus1=x3 Phases=3 kV=12.47 kW=90 PF=0.95 Model=1
New "Load.lm23" Bus1=m23 Phases=3 kV=12.47 kW=120 PF=0.95 Model=1
New "Load.lm24" Bus1=m24 Phases=3 kV=12.47 kW=120 PF=0.95 Model=1
New "Load.lm25" Bus1=m25 Phases=3 kV=12.47 kW=120 PF=0.95 Model=1
New "Load.lm26" Bus1=m26 Phases=3 kV=12.47 kW=120 PF=0.95 Model=1
New "Load.lm27" Bus1=m27 Phases=3 kV=12.47 kW=120 PF=0.95 Model=1
New "Load.lm28" Bus1=m28 Phases=3 kV=12.47 kW=120 PF=0.95 Model=1
New "Load.lm29" Bus1=m29 Phases=3 kV=12.47 kW=120 PF=0.95 Model=1
New "Load.lx4" Bus1=x4 Phases=3 kV=12.47 kW=90 PF=0.95 Model=1
New "Load.lm30" Bus1=m30 Phases=3 kV=12.47 kW=120 PF=0.95 Model=1
New "Load.lm31" Bus1=m31 Phases=3 kV=12.47 kW=120 PF=0.95 Model=1
New "Load.lm32" Bus1=m32 Phases=3 kV=12.47 kW=120 PF=0.95 Model=1
New "Load.lm33" Bus1=m33 Phases=3 kV=12.47 kW=120 PF=0.95 Model=1
New "Load.lm34" Bus1=m34 Phases=3 kV=12.47 kW=120 PF=0.95 Model=1
New "Load.lm35" Bus1=m35 Phases=3 kV=12.47 kW=120 PF=0.95 Model=1
New "Load.lm36" Bus1=m36 Phases=3 kV=12.47 kW=120 PF=0.95 Model=1
=== zone_2/Master.dss ===
Clear
New Circuit.Zone_2

Set EarthModel=Deri

Redirect LineCode.dss
Redirect LoadShape.dss
Redirect GrowthShape.dss
Redirect TCC_Curve.dss
Redirect Spectrum.dss
Redirect Vsource.dss
Redirect Branches.dss
Redirect Loads.dss
=== zone_2/Spectrum.dss ===
New "Spectrum.default" NumHarm=7 Harmonic=[ 1 3 5 7 9 11 13] %Mag=[ 100 33 20 14 11 9 7] Angle=[ 0 0 0 0 0 0 0]
New "Spectrum.defaultload" NumHarm=7 Harmonic=[ 1 3 5 7 9 11 13] %Mag=[ 100 1.5 20 14 1 9 7] Angle=[ 0 180 180 180 180 180 180]
New "Spectrum.defaultgen" NumHarm=7 Harmonic=[ 1 3 5 7 9 11 13] %Mag=[ 100 5 3 1.5 1 0.7 0.5] Angle=[ 0 0 0 0 0 0 0]
New "Spectrum.defaultvsource" NumHarm=1 Harmonic=[ 1] %Mag=[ 100] Angle=[ 0]
New "Spectrum.linear" NumHarm=1 Harmonic=[ 1] %Mag=[ 100] Angle=[ 0]
New "Spectrum.pwm6" NumHarm=13 Harmonic=[ 1 3 5 7 9 11 13 15 17 19 21 23 25] %Mag=[ 100 4.4 76.5 62.7 2.9 24.8 12.7 0.5 7.1 8.4 0.9 4.4 3.3] Angle=[ -103 -5 28 -180 -33 -59 79 36 -253 -124 3 -30 86]
New "Spectrum.dc6" NumHarm=10 Harmonic=[ 1 3 5 7 9 11 13 15 17 19] %Mag=[ 100 1.2 33.6 1.6 0.4 8.7 1.2 0.3 4.5 1.3] Angle=[ -75 28 156 29 -91 49 54 148 -57 -46]
=== zone_2/TCC_Curve.dss ===
New "TCC_Curve.a" NPts=5 C_Array=[ 1 2.5 4.5 8 14] T_Array=[ 0.15 0.07 0.05 0.045 0.045]
New "TCC_Curve.d" NPts=5 C_Array=[ 1 2.5 4.5 8 14] T_Array=[ 6 0.7 0.2 0.06 0.02]
New "TCC_Curve.tlink" NPts=7 C_Array=[ 2 2.1 3 4 6 22 50] T_Array=[ 300 100 10.1 4 1.4 0.1 0.02]
New "TCC_Curve.klink" NPts=6 C_Array=[ 2 2.2 3 4 6 30] T_Array=[ 300 20 4 1.3 0.41 0.02]
New "TCC_Curve.uv1547" NPts=2 C_Array=[ 0.5 0.9] T_Array=[ 0.166 2]
New "TCC_Curve.ov1547" NPts=2 C_Array=[ 1.1 1.2] T_Array=[ 2 0.166]
New "TCC_Curve.mod_inv" NPts=15 C_Array=[ 1.1 1.3 1.5 2 3 4 5 6 7 8 9 10 20 50 100] T_Array=[ 27.1053 9.9029 6.439 3.8032 2.4322 1.9458 1.6883 1.5255 1.4117 1.3267 1.2604 1.2068 0.9481 0.7468 0.6478]
New "TCC_Curve.very_inv" NPts=15 C_Array=[ 1.1 1.3 1.5 2 3 4 5 6 7 8 9 10 20 50 100] T_Array=[ 93.872 28.9113 16.179 7.0277 2.9423 1.7983 1.3081 1.0513 0.8995 0.8023 0.7361 0.6891 0.5401 0.4988 0.493]
New "TCC_Curve.ext_inv" NPts=15 C_Array=[ 1.1 1.3 1.5 2 3 4 5 6 7 8 9 10 20 50 100] T_Array=[ 134.4074 40.9913 22.6817 9.5217 3.6467 2.0017 1.2967 0.9274 0.7092 0.5693 0.4742 0.4065 0.1924 0.133 0.1245]
New "TCC_Curve.definite" NPts=3 C_Array=[ 1 1.001 100] T_Array=[ 300 1 1]
=== zone_2/Vsource.dss ===
Edit Vsource.source bus1=m20.1 phases=1 pu=1.0 basekv=7.1029725 angle=-0.8988561 R1=0 X1=0.001 R0=0 X0=0.001
New Vsource.Vph_2 bus1=m20.2 phases=1 pu=1.0 basekv=7.1029725 angle=-120.89886 R1=0 X1=0.001 R0=0 X0=0.001
New Vsource.Vph_3 bus1=m20.3 phases=1 pu=1.0 basekv=7.1029725 angle=119.10114 R1=0 X1=0.001 R0=0 X0=0.001
